Git is a version control system.
Git is free software.
new line.
nnnnnn

edit in the branch dev
